9
 energy: -13.771051980960 gnorm: 0.000702288468 xtb: 6.7.1 (edcfbbe)
N            0.60838883756857       -0.53907569484560        0.85068457116944
C           -0.29069926249654       -0.24011955603810       -0.24774776736165
H           -0.13279621073332        0.80388084159264       -0.54384172918729
H           -0.15091383206269       -0.85898653640982       -1.15004561813964
C           -1.72551942514929       -0.34624728097226        0.19806161032579
H           -1.83395858501149       -0.33696794172875        1.29930284150062
O           -2.67079501521299       -0.42578769488984       -0.53388874125915
H            1.57104757321986       -0.36590194937068        0.58590628576212
H            0.53081591987787       -1.51329418733757        1.12208854718979
